REMARK  27 active torsions:
REMARK  status: ('A' for Active; 'I' for Inactive)
REMARK    1  A    between atoms: C_1  and  O_2 
REMARK    2  A    between atoms: C_1  and  C_32 
REMARK    3  A    between atoms: C_3  and  O_2 
REMARK    4  A    between atoms: C_3  and  C_4 
REMARK    5  A    between atoms: C_4  and  O_5 
REMARK    6  A    between atoms: C_6  and  O_5 
REMARK    7  A    between atoms: C_6  and  C_7 
REMARK    8  A    between atoms: C_7  and  C_8 
REMARK    9  A    between atoms: C_7  and  N_12 
REMARK       I    between atoms: C_8  and  N_9 
REMARK   10  A    between atoms: C_10  and  N_9 
REMARK   11  A    between atoms: C_10  and  C_15 
REMARK   12  A    between atoms: C_10  and  C_14 
REMARK   13  A    between atoms: C_14  and  O_33 
REMARK   14  A    between atoms: C_15  and  O_16 
REMARK   15  A    between atoms: C_19  and  C_20 
REMARK   16  A    between atoms: C_20  and  C_21 
REMARK   17  A    between atoms: C_21  and  C_22 
REMARK   18  A    between atoms: C_22  and  C_23 
REMARK   19  A    between atoms: C_23  and  C_24 
REMARK   20  A    between atoms: C_24  and  C_25 
REMARK   21  A    between atoms: C_25  and  C_26 
REMARK   22  A    between atoms: C_26  and  C_27 
REMARK   23  A    between atoms: C_27  and  C_28 
REMARK   24  A    between atoms: C_28  and  C_29 
REMARK   25  A    between atoms: C_29  and  C_30 
REMARK   26  A    between atoms: C_30  and  C_31 
REMARK   27  A    between atoms: C_31  and  C_32 
ROOT
HETATM    1  C   ***     1      10.062   2.325  -0.750  1.00  0.00     0.258 C 
HETATM    2  O   ***     1      11.108   2.929  -0.750  1.00  0.00    -0.265 OA
ENDROOT
BRANCH   1   3
HETATM    3  O   ***     1      10.062   0.987  -0.750  1.00  0.00    -0.319 OA
BRANCH   3   4
HETATM    4  C   ***     1      11.276   0.286  -0.750  1.00  0.00     0.205 C 
BRANCH   4   5
HETATM    5  C   ***     1      10.999  -1.211  -0.750  1.00  0.00     0.194 C 
BRANCH   5   6
HETATM    6  O   ***     1      12.213  -1.912  -0.750  1.00  0.00    -0.387 OA
BRANCH   6   7
HETATM    7  C   ***     1      12.213  -3.314  -0.750  1.00  0.00     0.202 C 
BRANCH   7   8
HETATM    8  C   ***     1      13.648  -3.823  -0.750  1.00  0.00     0.191 C 
BRANCH   8   9
HETATM    9  C   ***     1      14.361  -3.320   0.482  1.00  0.00     0.242 C 
HETATM   10  N   ***     1      15.671  -3.652   0.698  1.00  0.00    -0.343 N 
HETATM   11  H   ***     1      16.162  -4.234   0.031  1.00  0.00     0.163 HD
HETATM   12  O   ***     1      13.774  -2.626   1.277  1.00  0.00    -0.271 OA
BRANCH  10  13
HETATM   13  C   ***     1      16.356  -3.170   1.882  1.00  0.00     0.207 C 
BRANCH  13  14
HETATM   14  C   ***     1      16.356  -1.646   1.882  1.00  0.00     0.199 C 
BRANCH  14  15
HETATM   15  O   ***     1      17.677  -1.179   1.881  1.00  0.00    -0.398 OA
HETATM   16  H   ***     1      17.849  -0.252   1.881  1.00  0.00     0.209 HD
ENDBRANCH  14  15
ENDBRANCH  13  14
BRANCH  13  17
HETATM   17  C   ***     1      15.645  -3.672   3.114  1.00  0.00     0.283 C 
HETATM   18  O   ***     1      14.662  -4.366   3.004  1.00  0.00    -0.263 OA
BRANCH  17  19
HETATM   19  O   ***     1      16.103  -3.349   4.329  1.00  0.00    -0.325 OA
HETATM   20  C   ***     1      15.443  -3.815   5.474  1.00  0.00     0.213 C 
ENDBRANCH  17  19
ENDBRANCH  13  17
ENDBRANCH  10  13
ENDBRANCH   8   9
BRANCH   8  21
HETATM   21  N   ***     1      13.647  -5.261  -0.749  1.00  0.00    -0.417 N 
HETATM   22  H   ***     1      14.530  -5.772  -0.749  1.00  0.00     0.150 HD
HETATM   23  H   ***     1      12.763  -5.770  -0.749  1.00  0.00     0.150 HD
ENDBRANCH   8  21
ENDBRANCH   7   8
ENDBRANCH   6   7
ENDBRANCH   5   6
ENDBRANCH   4   5
ENDBRANCH   3   4
ENDBRANCH   1   3
BRANCH   1  24
HETATM   24  C   ***     1       8.755   3.080  -0.750  1.00  0.00     0.111 C 
BRANCH  24  25
HETATM   25  C   ***     1       7.597   2.091  -0.750  1.00  0.00     0.010 C 
BRANCH  25  26
HETATM   26  C   ***     1       6.278   2.852  -0.750  1.00  0.00     0.000 C 
BRANCH  26  27
HETATM   27  C   ***     1       5.120   1.863  -0.750  1.00  0.00     0.000 C 
BRANCH  27  28
HETATM   28  C   ***     1       3.801   2.625  -0.750  1.00  0.00     0.000 C 
BRANCH  28  29
HETATM   29  C   ***     1       2.643   1.635  -0.750  1.00  0.00     0.000 C 
BRANCH  29  30
HETATM   30  C   ***     1       1.324   2.397  -0.750  1.00  0.00     0.000 C 
BRANCH  30  31
HETATM   31  C   ***     1       0.166   1.408  -0.750  1.00  0.00     0.000 C 
BRANCH  31  32
HETATM   32  C   ***     1      -1.153   2.169  -0.750  1.00  0.00     0.000 C 
BRANCH  32  33
HETATM   33  C   ***     1      -2.311   1.180  -0.750  1.00  0.00     0.000 C 
BRANCH  33  34
HETATM   34  C   ***     1      -3.630   1.942  -0.750  1.00  0.00     0.000 C 
BRANCH  34  35
HETATM   35  C   ***     1      -4.788   0.952  -0.750  1.00  0.00     0.000 C 
BRANCH  35  36
HETATM   36  C   ***     1      -6.107   1.714  -0.750  1.00  0.00    -0.000 C 
BRANCH  36  37
HETATM   37  C   ***     1      -7.265   0.725  -0.750  1.00  0.00    -0.005 C 
HETATM   38  C   ***     1      -8.584   1.486  -0.750  1.00  0.00     0.005 C 
ENDBRANCH  36  37
ENDBRANCH  35  36
ENDBRANCH  34  35
ENDBRANCH  33  34
ENDBRANCH  32  33
ENDBRANCH  31  32
ENDBRANCH  30  31
ENDBRANCH  29  30
ENDBRANCH  28  29
ENDBRANCH  27  28
ENDBRANCH  26  27
ENDBRANCH  25  26
ENDBRANCH  24  25
ENDBRANCH   1  24
TORSDOF 27
