@<TRIPOS>MOLECULE
****
82 81 1 0 0
SMALL
USER_CHARGES


@<TRIPOS>ATOM
      1 C          10.0620    2.3252   -0.7501 C.2       1     ****    0.0000
      2 O          10.0620    0.9872   -0.7501 O.3       1     ****    0.0000
      3 C          11.2762    0.2862   -0.7501 C.3       1     ****    0.0000
      4 C          10.9986   -1.2113   -0.7501 C.3       1     ****    0.0000
      5 O          12.2128   -1.9123   -0.7501 O.3       1     ****    0.0000
      6 C          12.2128   -3.3143   -0.7501 C.3       1     ****    0.0000
      7 C          13.6484   -3.8227   -0.7501 C.3       1     ****    0.0000
      8 C          14.3607   -3.3204    0.4818 C.2       1     ****    0.0000
      9 N          15.6712   -3.6522    0.6978 N.am      1     ****    0.0000
     10 C          16.3556   -3.1695    1.8815 C.3       1     ****    0.0000
     11 O          11.1082    2.9292   -0.7501 O.2       1     ****    0.0000
     12 N          13.6470   -5.2607   -0.7492 N.3       1     ****    0.0000
     13 O          13.7744   -2.6256    1.2773 O.2       1     ****    0.0000
     14 C          15.6448   -3.6718    3.1143 C.2       1     ****    0.0000
     15 C          16.3555   -1.6465    1.8815 C.3       1     ****    0.0000
     16 O          17.6771   -1.1785    1.8807 O.3       1     ****    0.0000
     17 O          14.6621   -4.3656    3.0044 O.2       1     ****    0.0000
     18 C          -8.5842    1.4864   -0.7501 C.3       1     ****    0.0000
     19 C          -7.2653    0.7249   -0.7501 C.3       1     ****    0.0000
     20 C          -6.1072    1.7140   -0.7501 C.3       1     ****    0.0000
     21 C          -4.7882    0.9525   -0.7501 C.3       1     ****    0.0000
     22 C          -3.6301    1.9416   -0.7501 C.3       1     ****    0.0000
     23 C          -2.3112    1.1801   -0.7501 C.3       1     ****    0.0000
     24 C          -1.1531    2.1692   -0.7501 C.3       1     ****    0.0000
     25 C           0.1659    1.4077   -0.7501 C.3       1     ****    0.0000
     26 C           1.3240    2.3968   -0.7501 C.3       1     ****    0.0000
     27 C           2.6430    1.6353   -0.7501 C.3       1     ****    0.0000
     28 C           3.8011    2.6245   -0.7501 C.3       1     ****    0.0000
     29 C           5.1200    1.8630   -0.7501 C.3       1     ****    0.0000
     30 C           6.2781    2.8521   -0.7501 C.3       1     ****    0.0000
     31 C           7.5971    2.0906   -0.7501 C.3       1     ****    0.0000
     32 C           8.7552    3.0797   -0.7501 C.3       1     ****    0.0000
     33 O          16.1032   -3.3487    4.3291 O.3       1     ****    0.0000
     34 C          15.4429   -3.8154    5.4744 C.3       1     ****    0.0000
     35 H          11.8591    0.5549   -1.6594 H         1     ****    0.0000
     36 H          11.8597    0.5552    0.1587 H         1     ****    0.0000
     37 H          10.4157   -1.4801    0.1592 H         1     ****    0.0000
     38 H          10.4151   -1.4803   -1.6589 H         1     ****    0.0000
     39 H          11.6886   -3.6848    0.1592 H         1     ****    0.0000
     40 H          11.6881   -3.6852   -1.6589 H         1     ****    0.0000
     41 H          14.1731   -3.4519   -1.6589 H         1     ****    0.0000
     42 H          16.1623   -4.2343    0.0314 H         1     ****    0.0000
     43 H          17.4046   -3.5414    1.8809 H         1     ****    0.0000
     44 H          14.5298   -5.7716   -0.7491 H         1     ****    0.0000
     45 H          12.7631   -5.7698   -0.7488 H         1     ****    0.0000
     46 H          15.8319   -1.2761    2.7911 H         1     ****    0.0000
     47 H          15.8302   -1.2757    0.9730 H         1     ****    0.0000
     48 H          17.8487   -0.2523    1.8806 H         1     ****    0.0000
     49 H          -9.4306    0.7636   -0.7501 H         1     ****    0.0000
     50 H          -8.6430    2.1256   -1.6594 H         1     ****    0.0000
     51 H          -8.6430    2.1262    0.1587 H         1     ****    0.0000
     52 H          -7.2065    0.0857    0.1592 H         1     ****    0.0000
     53 H          -7.2065    0.0851   -1.6589 H         1     ****    0.0000
     54 H          -6.1659    2.3532   -1.6594 H         1     ****    0.0000
     55 H          -6.1660    2.3538    0.1587 H         1     ****    0.0000
     56 H          -4.7295    0.3133    0.1592 H         1     ****    0.0000
     57 H          -4.7294    0.3127   -1.6589 H         1     ****    0.0000
     58 H          -3.6888    2.5808   -1.6594 H         1     ****    0.0000
     59 H          -3.6889    2.5815    0.1587 H         1     ****    0.0000
     60 H          -2.2524    0.5409    0.1592 H         1     ****    0.0000
     61 H          -2.2524    0.5403   -1.6589 H         1     ****    0.0000
     62 H          -1.2118    2.8084   -1.6594 H         1     ****    0.0000
     63 H          -1.2118    2.8091    0.1587 H         1     ****    0.0000
     64 H           0.2246    0.7685    0.1592 H         1     ****    0.0000
     65 H           0.2247    0.7679   -1.6589 H         1     ****    0.0000
     66 H           1.2653    3.0360   -1.6594 H         1     ****    0.0000
     67 H           1.2652    3.0367    0.1587 H         1     ****    0.0000
     68 H           2.7017    0.9962    0.1592 H         1     ****    0.0000
     69 H           2.7017    0.9955   -1.6589 H         1     ****    0.0000
     70 H           3.7423    3.2637   -1.6594 H         1     ****    0.0000
     71 H           3.7423    3.2643    0.1587 H         1     ****    0.0000
     72 H           5.1787    1.2238    0.1592 H         1     ****    0.0000
     73 H           5.1788    1.2231   -1.6589 H         1     ****    0.0000
     74 H           6.2194    3.4913   -1.6594 H         1     ****    0.0000
     75 H           6.2193    3.4919    0.1587 H         1     ****    0.0000
     76 H           7.6558    1.4514    0.1592 H         1     ****    0.0000
     77 H           7.6559    1.4507   -1.6589 H         1     ****    0.0000
     78 H           8.6964    3.7189   -1.6594 H         1     ****    0.0000
     79 H           8.6964    3.7195    0.1587 H         1     ****    0.0000
     80 H          15.9682   -3.4449    6.3830 H         1     ****    0.0000
     81 H          15.4429   -4.9284    5.4744 H         1     ****    0.0000
     82 H          14.3938   -3.4435    5.4751 H         1     ****    0.0000
@<TRIPOS>BOND
     1     1     2     1
     2     1    11     2
     3     1    32     1
     4     2     3     1
     5     3     4     1
     6     3    35     1
     7     3    36     1
     8     4     5     1
     9     4    37     1
    10     4    38     1
    11     5     6     1
    12     6     7     1
    13     6    39     1
    14     6    40     1
    15     7     8     1
    16     7    12     1
    17     7    41     1
    18     8     9     1
    19     8    13     2
    20     9    10     1
    21     9    42     1
    22    10    14     1
    23    10    15     1
    24    10    43     1
    25    12    44     1
    26    12    45     1
    27    14    17     2
    28    14    33     1
    29    15    16     1
    30    15    46     1
    31    15    47     1
    32    16    48     1
    33    18    19     1
    34    18    49     1
    35    18    50     1
    36    18    51     1
    37    19    20     1
    38    19    52     1
    39    19    53     1
    40    20    21     1
    41    20    54     1
    42    20    55     1
    43    21    22     1
    44    21    56     1
    45    21    57     1
    46    22    23     1
    47    22    58     1
    48    22    59     1
    49    23    24     1
    50    23    60     1
    51    23    61     1
    52    24    25     1
    53    24    62     1
    54    24    63     1
    55    25    26     1
    56    25    64     1
    57    25    65     1
    58    26    27     1
    59    26    66     1
    60    26    67     1
    61    27    28     1
    62    27    68     1
    63    27    69     1
    64    28    29     1
    65    28    70     1
    66    28    71     1
    67    29    30     1
    68    29    72     1
    69    29    73     1
    70    30    31     1
    71    30    74     1
    72    30    75     1
    73    31    32     1
    74    31    76     1
    75    31    77     1
    76    32    78     1
    77    32    79     1
    78    33    34     1
    79    34    80     1
    80    34    81     1
    81    34    82     1
